
**** 07/17/21 03:15:25 ********* PSpice 9.2 (Mar 2000) ******** ID# 1 ********

 ** Profile: "SCHEMATIC1-Vout_HALF_FULL"  [ C:\USERS\JOHN\DESKTOP\ELEC1\Simulation\Bonus\Part2.5\both_wave_rectifier-SCHEMATIC1-Vout_


 ****     CIRCUIT DESCRIPTION


******************************************************************************




** Creating circuit file "both_wave_rectifier-SCHEMATIC1-Vout_HALF_FULL.sim.cir" 
** WARNING: THIS AUTOMATICALLY GENERATED FILE MAY BE OVERWRITTEN BY SUBSEQUENT SIMULATIONS

*Libraries: 
* Local Libraries :
* From [PSPICE NETLIST] section of C:\Program Files\Orcad\PSpice\PSpice.ini file:
.lib "nom.lib" 

*Analysis directives: 
.TRAN  0 0.08s 0s 10us 
.PROBE V(*) I(*) W(*) D(*) NOISE(*) 
.INC ".\both_wave_rectifier-SCHEMATIC1.net" 



**** INCLUDING both_wave_rectifier-SCHEMATIC1.net ****
* source BOTH_WAVE_RECTIFIER
V_V1         N00281 0  
+SIN 0 311.1 50 0 0 0
X_TX1_2    N02906 0 N01417 N01522 SCHEMATIC1_TX1_2 
D_D4_2         N01522 VOUT_FULL D1N4001 
D_D1_2         0 N01417 D1N4001 
V_V1_2         N02273 0  
+SIN 0 311.1 50 0 0 0
X_TX1    N00357 0 N00384 0 SCHEMATIC1_TX1 
C_C1_2         0 VOUT_FULL  100u  
R_R1         N00281 N00357  1  
R_R1_2         N02273 N02906  1  
R_RL         0 VOUT_HALF  1.34k  
R_RL_2         0 VOUT_FULL  1.34k  
D_D2_2         N01417 VOUT_FULL D1N4001 
C_C1         0 VOUT_HALF  100u  
D_D3_2         0 N01522 D1N4001 
D_D1         N00384 VOUT_HALF D1N4001 

.subckt SCHEMATIC1_TX1_2 1 2 3 4  
K_TX1_2         L1_TX1_2 L2_TX1_2 1
L1_TX1_2         1 2 2420mH
L2_TX1_2         3 4 3250uH
.ends SCHEMATIC1_TX1_2

.subckt SCHEMATIC1_TX1 1 2 3 4  
K_TX1         L1_TX1 L2_TX1 1
L1_TX1         1 2 9680mH
L2_TX1         3 4 11.45mH
.ends SCHEMATIC1_TX1

**** RESUMING both_wave_rectifier-SCHEMATIC1-Vout_HALF_FULL.sim.cir ****
.END

**** 07/17/21 03:15:25 ********* PSpice 9.2 (Mar 2000) ******** ID# 1 ********

 ** Profile: "SCHEMATIC1-Vout_HALF_FULL"  [ C:\USERS\JOHN\DESKTOP\ELEC1\Simulation\Bonus\Part2.5\both_wave_rectifier-SCHEMATIC1-Vout_


 ****     Diode MODEL PARAMETERS


******************************************************************************




               D1N4001         
          IS   14.110000E-09 
           N    1.984        
         IKF   94.81         
          BV   75            
         IBV   10.000000E-06 
          RS     .03389      
          TT    5.700000E-06 
         CJO   25.890000E-12 
          VJ     .3245       
           M     .44         


**** 07/17/21 03:15:25 ********* PSpice 9.2 (Mar 2000) ******** ID# 1 ********

 ** Profile: "SCHEMATIC1-Vout_HALF_FULL"  [ C:\USERS\JOHN\DESKTOP\ELEC1\Simulation\Bonus\Part2.5\both_wave_rectifier-SCHEMATIC1-Vout_


 ****     INITIAL TRANSIENT SOLUTION       TEMPERATURE =   27.000 DEG C


******************************************************************************



 NODE   VOLTAGE     NODE   VOLTAGE     NODE   VOLTAGE     NODE   VOLTAGE


(N00281)    0.0000 (N00357)    0.0000 (N00384)    0.0000 (N01417)-1.373E-15     

(N01522)-1.373E-15 (N02273)    0.0000 (N02906)    0.0000 (VOUT_FULL)-2.733E-15  

(VOUT_HALF)-1.366E-15                 




    VOLTAGE SOURCE CURRENTS
    NAME         CURRENT

    V_V1         0.000E+00
    V_V1_2       0.000E+00

    TOTAL POWER DISSIPATION   0.00E+00  WATTS



          JOB CONCLUDED

          TOTAL JOB TIME             .39
