
**** 07/17/21 05:06:57 ********* PSpice 9.2 (Mar 2000) ******** ID# 1 ********

 ** Profile: "SCHEMATIC1-Vout"  [ C:\USERS\JOHN\DESKTOP\ELEC1\Simulation\Bonus\Part3\bonus_part3-SCHEMATIC1-Vout.sim ] 


 ****     CIRCUIT DESCRIPTION


******************************************************************************




** Creating circuit file "bonus_part3-SCHEMATIC1-Vout.sim.cir" 
** WARNING: THIS AUTOMATICALLY GENERATED FILE MAY BE OVERWRITTEN BY SUBSEQUENT SIMULATIONS

*Libraries: 
* Local Libraries :
* From [PSPICE NETLIST] section of C:\Program Files\Orcad\PSpice\PSpice.ini file:
.lib "nom.lib" 

*Analysis directives: 
.TRAN  0 80ms 40ms 1us 
.PROBE V(*) I(*) W(*) D(*) NOISE(*) 
.INC ".\bonus_part3-SCHEMATIC1.net" 



**** INCLUDING bonus_part3-SCHEMATIC1.net ****
* source BONUS_PART3
R_RB2         0 N16625  3.9k  
R_Re         0 VOUT  2k  
R_RC3         N02604 VOUT_HALF  0.9k  
C_C1         N02636 VOUT  1u  
V_V2         VS 0  
+SIN 0 1m 10k 0 0 0
R_RB6         0 N10825  360k  
R_RC2         0 VO2  280  
R_RE1         0 N16970  500  
R_RE3         0 N02636  3k  
C_C2         VO2 N10825  1u  
C_C5         VI N16970  1u  
R_RB1         N16625 VOUT_HALF  50k  
Q_Q2         VO2 N07945 N09547 Q2N4355
R_RC1         VO1 VOUT_HALF  29k  
R_Rs         VI VS  25  
X_TX1    N00357 0 N00384 0 SCHEMATIC1_TX1 
Q_Q3         N02604 N10825 N02636 BC368 
C_C3         VO1 N07945  1u  
V_V1         N00281 0  
+SIN 0 311.1 50 0 0 0
R_R1         N00281 N00357  1  
C_C4         0 N16625  1u  
Q_Q1         VO1 N16625 N16970 BC368 
R_RB3         N07945 VOUT_HALF  480k  
R_RE2         N09547 VOUT_HALF  0.75k  
R_RB5         N10825 VOUT_HALF  95.3k  
C_C1_1         0 VOUT_HALF  100u  
R_RB4         0 N07945  160k  
D_D1         N00384 VOUT_HALF D1N4001 

.subckt SCHEMATIC1_TX1 1 2 3 4  
K_TX1         L1_TX1 L2_TX1 1
L1_TX1         1 2 9680mH
L2_TX1         3 4 11.45mH
.ends SCHEMATIC1_TX1

**** RESUMING bonus_part3-SCHEMATIC1-Vout.sim.cir ****
.END

**** 07/17/21 05:06:57 ********* PSpice 9.2 (Mar 2000) ******** ID# 1 ********

 ** Profile: "SCHEMATIC1-Vout"  [ C:\USERS\JOHN\DESKTOP\ELEC1\Simulation\Bonus\Part3\bonus_part3-SCHEMATIC1-Vout.sim ] 


 ****     Diode MODEL PARAMETERS


******************************************************************************




               D1N4001         
          IS   14.110000E-09 
           N    1.984        
         IKF   94.81         
          BV   75            
         IBV   10.000000E-06 
          RS     .03389      
          TT    5.700000E-06 
         CJO   25.890000E-12 
          VJ     .3245       
           M     .44         


**** 07/17/21 05:06:57 ********* PSpice 9.2 (Mar 2000) ******** ID# 1 ********

 ** Profile: "SCHEMATIC1-Vout"  [ C:\USERS\JOHN\DESKTOP\ELEC1\Simulation\Bonus\Part3\bonus_part3-SCHEMATIC1-Vout.sim ] 


 ****     BJT MODEL PARAMETERS


******************************************************************************




               Q2N4355         BC368           
               PNP             NPN             
          IS   12.270000E-12   14.060000E-15 
          BF  194.8           187.6          
          NF    1               1            
         VAF  100             100            
         IKF    1.123           4.103        
         ISE   12.270000E-12  137.200000E-15 
          NE    1.649           1.468        
          BR    1.184           4.541        
          NR    1               1            
         IKR                    1.701        
         ISC                   44.130000E-15 
          NC                    1.471        
          NK                     .5507       
          RB   10                            
          RC     .6              .091        
         CJE  106.700000E-12  156.000000E-12 
         VJE                     .5          
         MJE     .5168           .3333       
         CJC   48.280000E-12   52.240000E-12 
         VJC                     .5          
         MJC     .5615           .3333       
          TF  867.000000E-12  964.800000E-12 
         XTF     .8             1.001000E+03 
         VTF    2              10            
         ITF     .2           595.3          
          TR  474.500000E-09   10.000000E-09 
         XTB    1.5             1.5          
          CN    2.2             2.42         
           D     .52             .87         


**** 07/17/21 05:06:57 ********* PSpice 9.2 (Mar 2000) ******** ID# 1 ********

 ** Profile: "SCHEMATIC1-Vout"  [ C:\USERS\JOHN\DESKTOP\ELEC1\Simulation\Bonus\Part3\bonus_part3-SCHEMATIC1-Vout.sim ] 


 ****     INITIAL TRANSIENT SOLUTION       TEMPERATURE =   27.000 DEG C


******************************************************************************



 NODE   VOLTAGE     NODE   VOLTAGE     NODE   VOLTAGE     NODE   VOLTAGE


(   VI)    0.0000  (   VS)    0.0000  (  VO1)-1.217E-18  (  VO2)-11.70E-24      

( VOUT)    0.0000  (N00281)    0.0000 (N00357)    0.0000 (N00384)    0.0000     

(N02604)-1.217E-18 (N02636)-1.145E-24 (N07945)-307.3E-21 (N09547)-1.217E-18     

(N10825)-961.9E-21 (N16625)-88.03E-21 (N16970) 43.06E-27 (VOUT_HALF)-1.217E-18  




    VOLTAGE SOURCE CURRENTS
    NAME         CURRENT

    V_V2         0.000E+00
    V_V1         0.000E+00

    TOTAL POWER DISSIPATION   0.00E+00  WATTS



          JOB CONCLUDED

          TOTAL JOB TIME            2.73
