
**** 07/17/21 02:40:20 ********* PSpice 9.2 (Mar 2000) ******** ID# 1 ********

 ** Profile: "SCHEMATIC1-Vout_Full_Wave"  [ C:\USERS\JOHN\DESKTOP\ELEC1\Simulation\Bonus\Part2\full_wave_rectifier-SCHEMATIC1-Vout_Fu


 ****     CIRCUIT DESCRIPTION


******************************************************************************




** Creating circuit file "full_wave_rectifier-SCHEMATIC1-Vout_Full_Wave.sim.cir" 
** WARNING: THIS AUTOMATICALLY GENERATED FILE MAY BE OVERWRITTEN BY SUBSEQUENT SIMULATIONS

*Libraries: 
* Local Libraries :
* From [PSPICE NETLIST] section of C:\Program Files\Orcad\PSpice\PSpice.ini file:
.lib "nom.lib" 

*Analysis directives: 
.TRAN  0 0.1s 0 10us 
.PROBE V(*) I(*) W(*) D(*) NOISE(*) 
.INC ".\full_wave_rectifier-SCHEMATIC1.net" 



**** INCLUDING full_wave_rectifier-SCHEMATIC1.net ****
* source FULL_WAVE_RECTIFIER
V_V1         N00281 0  
+SIN 0 311.1 50 0 0 0
D_D4         N01522 VOUT D1N4001 
X_TX1    N00357 0 N01417 N01522 SCHEMATIC1_TX1 
R_R1         N00281 N00357  1  
R_RL         0 VOUT  1.34k  
D_D2         N01417 VOUT D1N4001 
C_C1         0 VOUT  100u  
D_D3         0 N01522 D1N4001 
D_D1         0 N01417 D1N4001 

.subckt SCHEMATIC1_TX1 1 2 3 4  
K_TX1         L1_TX1 L2_TX1 1
L1_TX1         1 2 2420mH
L2_TX1         3 4 3250uH
.ends SCHEMATIC1_TX1

**** RESUMING full_wave_rectifier-SCHEMATIC1-Vout_Full_Wave.sim.cir ****
.END

**** 07/17/21 02:40:20 ********* PSpice 9.2 (Mar 2000) ******** ID# 1 ********

 ** Profile: "SCHEMATIC1-Vout_Full_Wave"  [ C:\USERS\JOHN\DESKTOP\ELEC1\Simulation\Bonus\Part2\full_wave_rectifier-SCHEMATIC1-Vout_Fu


 ****     Diode MODEL PARAMETERS


******************************************************************************




               D1N4001         
          IS   14.110000E-09 
           N    1.984        
         IKF   94.81         
          BV   75            
         IBV   10.000000E-06 
          RS     .03389      
          TT    5.700000E-06 
         CJO   25.890000E-12 
          VJ     .3245       
           M     .44         


**** 07/17/21 02:40:20 ********* PSpice 9.2 (Mar 2000) ******** ID# 1 ********

 ** Profile: "SCHEMATIC1-Vout_Full_Wave"  [ C:\USERS\JOHN\DESKTOP\ELEC1\Simulation\Bonus\Part2\full_wave_rectifier-SCHEMATIC1-Vout_Fu


 ****     INITIAL TRANSIENT SOLUTION       TEMPERATURE =   27.000 DEG C


******************************************************************************



 NODE   VOLTAGE     NODE   VOLTAGE     NODE   VOLTAGE     NODE   VOLTAGE


( VOUT)-2.733E-15  (N00281)    0.0000 (N00357)    0.0000 (N01417)-1.379E-15     

(N01522)-1.379E-15 




    VOLTAGE SOURCE CURRENTS
    NAME         CURRENT

    V_V1         0.000E+00

    TOTAL POWER DISSIPATION   0.00E+00  WATTS



          JOB CONCLUDED

          TOTAL JOB TIME             .38
